Subject: randgridsageaqa/versions
From: Version Service/1.0
MIME-Version: 1.0
Content-Type: multipart/alternative; boundary="dfd123bc-61dd-4482-b6d8-902839b64811"

--dfd123bc-61dd-4482-b6d8-902839b64811
Content-Disposition: version

Region!STRING:0|BuildConfig!HEX:16|CDNConfig!HEX:16|KeyRing!HEX:16|BuildId!DEC:4|VersionsName!String:0|ProductConfig!HEX:16
## seqn = 2814348
us|08a17823fa3007999cd54ac37bf3ac9b|737e8f8efacfdde2b52148c86b19ecf0||21476240|0.0.1.21476240d|

--dfd123bc-61dd-4482-b6d8-902839b64811
Content-Type: application/pkcs7-signature
Content-Transfer-Encoding: Base64
Content-Disposition: signature

MIIB3gYJKoZIhvcNAQcCoIIBzzCCAcsCAQMxDTALBglghkgBZQMEAgEwCwYJKoZIhvcNAQcBMYIBqDCCAaQCAQOAFHgqinELlQQh
EnJQo+kbdRyjVuICMAsGCWCGSAFlAwQCAaBpMBgGCSqGSIb3DQEJAzELBgkqhkiG9w0BBwEwHAYJKoZIhvcNAQkFMQ8XDTI1MDQw
MjIyNDQwNlowLwYJKoZIhvcNAQkEMSIEIMX+jvlBL8VH9raIvoYyWY2Awa2DeXxE/xxPiBoLOfLbMA0GCSqGSIb3DQEBAQUABIIB
AIP4SPUGGNE5dlzCxEVggOClWZW/OtmzhGjtToxUaYvljs2sf4FZmp+ogqsg4SiTJ3YpGpPha4Y+ooYo5IYavz36OkgGV3bnaFco
QvhyjzYdOZmBtHnAdQ4kaj9ADgJKX5wi/+2tOn53KndA8fkHf6TC+CemK8LcO2oQrckGTKWWooF3VA3yGWn1YOUGPpD0qFHvLBlN
MT3DueukA4fOGFQat0m22Z4IH0ztxg/ou33PeMCzmHm9fOpaSU8Op8/0q3c/v9j6n9Crjx/rNrJrCMEJIq+eTrrVxCe3eEQ3SSVK
lvFz2ulx2CpJAMeMs7B9f0O1CUUB1xGtt2HNJ6H08VA=
--dfd123bc-61dd-4482-b6d8-902839b64811--
Checksum: 6a53c874a510f05c7d9580593d4100a6d7ceef9a249df7402536bc19dcf1505a
