Content-Type: multipart/alternative; boundary="966c9fe0-c497-426d-ace5-c3953bb521e8"
MIME-Version: 1.0
From: Version Service/1.0
Subject: auksv15/versions

--966c9fe0-c497-426d-ace5-c3953bb521e8
Content-Disposition: version

Region!STRING:0|BuildConfig!HEX:16|CDNConfig!HEX:16|KeyRing!HEX:16|BuildId!DEC:4|VersionsName!String:0|ProductConfig!HEX:16
## seqn = 1512388
us|6f3d07004006288cdb9814a41e70c2de|846e0fe93ad48d36f878aaeb2d65d709||13819412|0.0.0.13819412d|700721aa10221a6dd351c37fc1034879
eu|6f3d07004006288cdb9814a41e70c2de|846e0fe93ad48d36f878aaeb2d65d709||13819412|0.0.0.13819412d|700721aa10221a6dd351c37fc1034879
kr|6f3d07004006288cdb9814a41e70c2de|846e0fe93ad48d36f878aaeb2d65d709||13819412|0.0.0.13819412d|700721aa10221a6dd351c37fc1034879

--966c9fe0-c497-426d-ace5-c3953bb521e8
Content-Transfer-Encoding: Base64
Content-Type: application/pkcs7-signature
Content-Disposition: signature

MIIB3gYJKoZIhvcNAQcCoIIBzzCCAcsCAQMxDTALBglghkgBZQMEAgEwCwYJKoZIhvcNAQcBMYIBqDCCAaQCAQOAFHgqinELlQQh
EnJQo+kbdRyjVuICMAsGCWCGSAFlAwQCAaBpMBgGCSqGSIb3DQEJAzELBgkqhkiG9w0BBwEwHAYJKoZIhvcNAQkFMQ8XDTIzMDIx
NzE1MTUzN1owLwYJKoZIhvcNAQkEMSIEIJSzgmB77MJMY84b7iHYm2c9QxXPSo9+hRMp8SP5rAaLMA0GCSqGSIb3DQEBAQUABIIB
ADyO3ztvAV1NV3+MT3DeB8zSmKioUt5OYyylystmaPAcRKwdLufvonWbdi8Ss6rFi5g++MG4qspLquPLl1fkR8dz2+Ci84l530r9
Fz9DVJnUG16bs0Wgr6nR36NqjM7+I9ZlOinSWxzZHQCnAo2oeRfhYPe60tESJrWqVMIPbcCSZYZk103R5SqkZSMfNdZ8VFnCfpvK
Q1tFEPLguyyaP2G1WVeqXRyA5r7/wJErqtEzNIZxpyeqGzpaUlsB7heB8UePA3pekp30EkWARhGPlAbFyF70Z1DuowmEn0tMM1L9
yMqVJL3s6z/nBP9IVQ2BsiX6lIhLEcTwOldzZ+K05/8=
--966c9fe0-c497-426d-ace5-c3953bb521e8--
Checksum: e418353ff0f700b14e22d2395fba0a3c1a36332c6e41a2d1ebd97579bc77a76f
